results/2026-03-04/bilevel_comparisons_single_period/solution_bus_motivation_c_efficiency.csv
bus_id,vm_avg,z_voltage
1,0.9999507335799084,1.0
2,0.999950744203623,1.0
3,0.9998662166500495,1.0
4,1.0001221826572129,1.0
5,0.0,0.0
6,1.014889156509222,1.0
7,1.000289985603865,1.0
8,1.0002899876440259,1.0
9,1.0023767386897768,1.0
10,1.0023767386897768,1.0
11,1.0001296523940575,1.0
12,0.0,0.0
13,0.9999507335799084,1.0
14,1.000289985603865,1.0
15,0.0,0.0
16,1.0023767386897768,1.0
17,1.000289985603865,1.0
18,0.9999507335799084,1.0
19,1.0002899876440259,1.0
20,0.0,0.0
